*SPEF "ieee 1481-1999"
*DESIGN "system_wrapper"
*DATE "11:11:11 Fri 11 11, 1111"
*VENDOR "OpenRCX"
*PROGRAM "Parallel Extraction"
*VERSION "1.0"
*DESIGN_FLOW "NAME_SCOPE LOCAL" "PIN_CAP NONE"
*DIVIDER /
*DELIMITER :
*BUS_DELIMITER []
*T_UNIT 1 NS
*C_UNIT 1 PF
*R_UNIT 1 OHM
*L_UNIT 1 HENRY

*NAME_MAP
*1 io_in[0]
*2 io_in[10]
*3 io_in[11]
*4 io_in[12]
*5 io_in[13]
*6 io_in[14]
*7 io_in[15]
*8 io_in[16]
*9 io_in[17]
*10 io_in[18]
*11 io_in[19]
*12 io_in[1]
*13 io_in[20]
*14 io_in[21]
*15 io_in[22]
*16 io_in[23]
*17 io_in[24]
*18 io_in[25]
*19 io_in[26]
*20 io_in[27]
*21 io_in[28]
*22 io_in[29]
*23 io_in[2]
*24 io_in[30]
*25 io_in[31]
*26 io_in[32]
*27 io_in[33]
*28 io_in[34]
*29 io_in[35]
*30 io_in[36]
*31 io_in[37]
*32 io_in[3]
*33 io_in[4]
*34 io_in[5]
*35 io_in[6]
*36 io_in[7]
*37 io_in[8]
*38 io_in[9]
*39 net11
*40 net21
*41 net22
*42 net23
*43 net24
*44 net25
*45 net26
*46 net27
*47 net28
*48 net29
*49 net30
*50 net12
*51 net31
*52 net32
*53 net33
*54 net34
*55 net35
*56 net36
*57 net37
*58 net38
*59 net39
*60 net40
*61 net13
*62 net41
*63 net42
*64 net43
*65 net44
*66 net45
*67 net46
*68 net47
*69 net48
*70 net14
*71 net15
*72 net16
*73 net17
*74 net18
*75 net19
*76 net20
*77 net49
*78 net59
*79 net60
*80 net61
*81 net62
*82 net63
*83 net64
*84 net65
*85 io_out[17]
*86 net66
*87 net67
*88 net50
*89 net68
*90 net69
*91 net70
*92 net71
*93 net72
*94 net73
*95 net74
*96 net75
*97 net76
*98 net77
*99 net51
*100 net78
*101 net79
*102 net80
*103 net81
*104 net82
*105 net83
*106 net84
*107 net85
*108 net52
*109 net53
*110 net54
*111 net55
*112 net56
*113 net57
*114 net58
*115 la_data_in[0]
*116 la_data_in[10]
*117 la_data_in[11]
*118 la_data_in[12]
*119 la_data_in[13]
*120 la_data_in[14]
*121 la_data_in[15]
*122 la_data_in[16]
*123 la_data_in[17]
*124 la_data_in[18]
*125 la_data_in[19]
*126 la_data_in[1]
*127 la_data_in[20]
*128 la_data_in[21]
*129 la_data_in[22]
*130 la_data_in[23]
*131 la_data_in[24]
*132 la_data_in[25]
*133 la_data_in[26]
*134 la_data_in[27]
*135 la_data_in[28]
*136 la_data_in[29]
*137 la_data_in[2]
*138 la_data_in[30]
*139 la_data_in[31]
*140 la_data_in[32]
*141 la_data_in[33]
*142 la_data_in[34]
*143 la_data_in[35]
*144 la_data_in[36]
*145 la_data_in[37]
*146 la_data_in[38]
*147 la_data_in[39]
*148 la_data_in[3]
*149 la_data_in[40]
*150 la_data_in[41]
*151 la_data_in[42]
*152 la_data_in[43]
*153 la_data_in[44]
*154 la_data_in[45]
*155 la_data_in[46]
*156 la_data_in[47]
*157 la_data_in[48]
*158 la_data_in[49]
*159 la_data_in[4]
*160 la_data_in[50]
*161 la_data_in[51]
*162 la_data_in[52]
*163 la_data_in[53]
*164 la_data_in[54]
*165 la_data_in[55]
*166 la_data_in[56]
*167 la_data_in[57]
*168 la_data_in[58]
*169 la_data_in[59]
*170 la_data_in[5]
*171 la_data_in[60]
*172 la_data_in[61]
*173 la_data_in[62]
*174 la_data_in[63]
*175 la_data_in[6]
*176 la_data_in[7]
*177 la_data_in[8]
*178 la_data_in[9]
*179 net86
*180 net96
*181 net97
*182 net98
*183 net99
*184 net100
*185 net101
*186 net102
*187 net103
*188 net104
*189 net105
*190 net87
*191 net106
*192 net107
*193 net108
*194 net109
*195 net110
*196 net111
*197 net112
*198 net113
*199 net114
*200 net115
*201 net88
*202 net116
*203 net117
*204 net118
*205 net119
*206 net120
*207 net121
*208 net122
*209 net123
*210 net124
*211 net125
*212 net89
*213 net126
*214 net127
*215 net128
*216 net129
*217 net130
*218 net131
*219 net132
*220 net133
*221 net134
*222 net135
*223 net90
*224 net136
*225 net137
*226 net138
*227 net139
*228 net140
*229 net141
*230 net142
*231 net143
*232 net144
*233 net145
*234 net91
*235 net146
*236 net147
*237 net148
*238 net149
*239 net92
*240 net93
*241 net94
*242 net95
*243 la_oenb[0]
*244 la_oenb[10]
*245 la_oenb[11]
*246 la_oenb[12]
*247 la_oenb[13]
*248 la_oenb[14]
*249 la_oenb[15]
*250 la_oenb[16]
*251 la_oenb[17]
*252 la_oenb[18]
*253 la_oenb[19]
*254 la_oenb[1]
*255 la_oenb[20]
*256 la_oenb[21]
*257 la_oenb[22]
*258 la_oenb[23]
*259 la_oenb[24]
*260 la_oenb[25]
*261 la_oenb[26]
*262 la_oenb[27]
*263 la_oenb[28]
*264 la_oenb[29]
*265 la_oenb[2]
*266 la_oenb[30]
*267 la_oenb[31]
*268 la_oenb[32]
*269 la_oenb[33]
*270 la_oenb[34]
*271 la_oenb[35]
*272 la_oenb[36]
*273 la_oenb[37]
*274 la_oenb[38]
*275 la_oenb[39]
*276 la_oenb[3]
*277 la_oenb[40]
*278 la_oenb[41]
*279 la_oenb[42]
*280 la_oenb[43]
*281 la_oenb[44]
*282 la_oenb[45]
*283 la_oenb[46]
*284 la_oenb[47]
*285 la_oenb[48]
*286 la_oenb[49]
*287 la_oenb[4]
*288 la_oenb[50]
*289 la_oenb[51]
*290 la_oenb[52]
*291 la_oenb[53]
*292 la_oenb[54]
*293 la_oenb[55]
*294 la_oenb[56]
*295 la_oenb[57]
*296 la_oenb[58]
*297 la_oenb[59]
*298 la_oenb[5]
*299 la_oenb[60]
*300 la_oenb[61]
*301 la_oenb[62]
*302 la_oenb[63]
*303 la_oenb[6]
*304 la_oenb[7]
*305 la_oenb[8]
*306 la_oenb[9]
*307 user_clock2
*308 net150
*309 net151
*310 net152
*313 wb_clk_i
*314 wb_rst_i
*315 net153
*316 wbs_adr_i[0]
*317 wbs_adr_i[10]
*318 wbs_adr_i[11]
*319 wbs_adr_i[12]
*320 wbs_adr_i[13]
*321 wbs_adr_i[14]
*322 wbs_adr_i[15]
*323 wbs_adr_i[16]
*324 wbs_adr_i[17]
*325 wbs_adr_i[18]
*326 wbs_adr_i[19]
*327 wbs_adr_i[1]
*328 wbs_adr_i[20]
*329 wbs_adr_i[21]
*330 wbs_adr_i[22]
*331 wbs_adr_i[23]
*332 wbs_adr_i[24]
*333 wbs_adr_i[25]
*334 wbs_adr_i[26]
*335 wbs_adr_i[27]
*336 wbs_adr_i[28]
*337 wbs_adr_i[29]
*338 wbs_adr_i[2]
*339 wbs_adr_i[30]
*340 wbs_adr_i[31]
*341 wbs_adr_i[3]
*342 wbs_adr_i[4]
*343 wbs_adr_i[5]
*344 wbs_adr_i[6]
*345 wbs_adr_i[7]
*346 wbs_adr_i[8]
*347 wbs_adr_i[9]
*348 wbs_cyc_i
*349 wbs_dat_i[0]
*350 wbs_dat_i[10]
*351 wbs_dat_i[11]
*352 wbs_dat_i[12]
*353 wbs_dat_i[13]
*354 wbs_dat_i[14]
*355 wbs_dat_i[15]
*356 wbs_dat_i[16]
*357 wbs_dat_i[17]
*358 wbs_dat_i[18]
*359 wbs_dat_i[19]
*360 wbs_dat_i[1]
*361 wbs_dat_i[20]
*362 wbs_dat_i[21]
*363 wbs_dat_i[22]
*364 wbs_dat_i[23]
*365 wbs_dat_i[24]
*366 wbs_dat_i[25]
*367 wbs_dat_i[26]
*368 wbs_dat_i[27]
*369 wbs_dat_i[28]
*370 wbs_dat_i[29]
*371 wbs_dat_i[2]
*372 wbs_dat_i[30]
*373 wbs_dat_i[31]
*374 wbs_dat_i[3]
*375 wbs_dat_i[4]
*376 wbs_dat_i[5]
*377 wbs_dat_i[6]
*378 wbs_dat_i[7]
*379 wbs_dat_i[8]
*380 wbs_dat_i[9]
*381 net154
*382 net164
*383 net165
*384 net166
*385 net167
*386 net168
*387 net169
*388 net170
*389 net171
*390 net172
*391 net173
*392 net155
*393 net174
*394 net175
*395 net176
*396 net177
*397 net178
*398 net179
*399 net180
*400 net181
*401 net182
*402 net183
*403 net156
*404 net184
*405 net185
*406 net157
*407 net158
*408 net159
*409 net160
*410 net161
*411 net162
*412 net163
*413 wbs_sel_i[0]
*414 wbs_sel_i[1]
*415 wbs_sel_i[2]
*416 wbs_sel_i[3]
*417 wbs_stb_i
*418 wbs_we_i
*419 _000_
*420 _001_
*421 _002_
*422 _003_
*423 _004_
*424 _005_
*425 _006_
*426 _007_
*427 _008_
*428 _009_
*429 _010_
*430 _011_
*431 _012_
*432 _013_
*433 _014_
*434 _015_
*435 _016_
*436 _017_
*437 _018_
*438 _019_
*439 _020_
*440 net1
*441 net10
*442 net2
*443 net3
*444 net4
*445 net5
*446 net6
*447 net7
*448 net8
*449 net9
*450 ANTENNA__021__A1
*451 ANTENNA__021__A2
*452 ANTENNA__022__A1
*453 ANTENNA__022__A2
*454 ANTENNA__023__A1
*455 ANTENNA__024__A1
*456 ANTENNA__024__A2
*457 ANTENNA__025__A1
*458 ANTENNA__025__A2
*459 ANTENNA__026__A1
*460 ANTENNA__028__A1
*461 ANTENNA__028__A2
*462 ANTENNA__029__A1
*463 ANTENNA__029__A2
*464 ANTENNA__029__A3
*465 ANTENNA__030__A1
*466 ANTENNA__030__A2
*467 ANTENNA__030__A3
*468 ANTENNA__032__A1
*469 ANTENNA__032__A2
*470 ANTENNA__035__A1
*471 ANTENNA__036__B
*472 ANTENNA__037__A1
*473 ANTENNA__037__A2
*474 ANTENNA__041__I
*475 ANTENNA__042__B2
*476 ANTENNA_input1_I
*477 ANTENNA_input2_I
*478 ANTENNA_input3_I
*479 ANTENNA_input4_I
*480 ANTENNA_input5_I
*481 ANTENNA_input6_I
*482 ANTENNA_input7_I
*483 ANTENNA_input8_I
*484 ANTENNA_input9_I
*485 ANTENNA_output10_I
*486 FILLER_0_101
*487 FILLER_0_1011
*488 FILLER_0_1017
*489 FILLER_0_1025
*490 FILLER_0_1037
*491 FILLER_0_1039
*492 FILLER_0_1044
*493 FILLER_0_107
*494 FILLER_0_11
*495 FILLER_0_115
*496 FILLER_0_119
*497 FILLER_0_135
*498 FILLER_0_139
*499 FILLER_0_142
*500 FILLER_0_174
*501 FILLER_0_177
*502 FILLER_0_2
*503 FILLER_0_209
*504 FILLER_0_212
*505 FILLER_0_228
*506 FILLER_0_233
*507 FILLER_0_237
*508 FILLER_0_239
*509 FILLER_0_244
*510 FILLER_0_247
*511 FILLER_0_251
*512 FILLER_0_257
*513 FILLER_0_263
*514 FILLER_0_27
*515 FILLER_0_279
*516 FILLER_0_282
*517 FILLER_0_287
*518 FILLER_0_299
*519 FILLER_0_317
*520 FILLER_0_323
*521 FILLER_0_329
*522 FILLER_0_345
*523 FILLER_0_349
*524 FILLER_0_352
*525 FILLER_0_368
*526 FILLER_0_37
*527 FILLER_0_372
*528 FILLER_0_377
*529 FILLER_0_387
*530 FILLER_0_395
*531 FILLER_0_411
*532 FILLER_0_419
*533 FILLER_0_422
*534 FILLER_0_426
*535 FILLER_0_431
*536 FILLER_0_447
*537 FILLER_0_449
*538 FILLER_0_454
*539 FILLER_0_457
*540 FILLER_0_462
*541 FILLER_0_466
*542 FILLER_0_468
*543 FILLER_0_473
*544 FILLER_0_485
*545 FILLER_0_489
*546 FILLER_0_492
*547 FILLER_0_508
*548 FILLER_0_516
*549 FILLER_0_521
*550 FILLER_0_527
*551 FILLER_0_53
*552 FILLER_0_543
*553 FILLER_0_551
*554 FILLER_0_559
*555 FILLER_0_562
*556 FILLER_0_59
*557 FILLER_0_594
*558 FILLER_0_597
*559 FILLER_0_6
*560 FILLER_0_602
*561 FILLER_0_608
*562 FILLER_0_612
*563 FILLER_0_617
*564 FILLER_0_625
*565 FILLER_0_629
*566 FILLER_0_632
*567 FILLER_0_65
*568 FILLER_0_664
*569 FILLER_0_667
*570 FILLER_0_672
*571 FILLER_0_676
*572 FILLER_0_678
*573 FILLER_0_683
*574 FILLER_0_69
*575 FILLER_0_695
*576 FILLER_0_699
*577 FILLER_0_702
*578 FILLER_0_718
*579 FILLER_0_72
*580 FILLER_0_726
*581 FILLER_0_731
*582 FILLER_0_737
*583 FILLER_0_749
*584 FILLER_0_761
*585 FILLER_0_769
*586 FILLER_0_77
*587 FILLER_0_772
*588 FILLER_0_777
*589 FILLER_0_793
*590 FILLER_0_801
*591 FILLER_0_807
*592 FILLER_0_827
*593 FILLER_0_835
*594 FILLER_0_839
*595 FILLER_0_842
*596 FILLER_0_874
*597 FILLER_0_877
*598 FILLER_0_885
*599 FILLER_0_893
*600 FILLER_0_909
*601 FILLER_0_912
*602 FILLER_0_93
*603 FILLER_0_944
*604 FILLER_0_947
*605 FILLER_0_952
*606 FILLER_0_960
*607 FILLER_0_964
*608 FILLER_0_966
*609 FILLER_0_971
*610 FILLER_0_979
*611 FILLER_0_982
*612 FILLER_0_987
*613 FILLER_0_995
*614 FILLER_100_101
*615 FILLER_100_1024
*616 FILLER_100_1028
*617 FILLER_100_1031
*618 FILLER_100_1039
*619 FILLER_100_1043
*620 FILLER_100_105
*621 FILLER_100_108
*622 FILLER_100_172
*623 FILLER_100_176
*624 FILLER_100_179
*625 FILLER_100_2
*626 FILLER_100_243
*627 FILLER_100_247
*628 FILLER_100_250
*629 FILLER_100_314
*630 FILLER_100_318
*631 FILLER_100_321
*632 FILLER_100_34
*633 FILLER_100_37
*634 FILLER_100_385
*635 FILLER_100_389
*636 FILLER_100_392
*637 FILLER_100_456
*638 FILLER_100_460
*639 FILLER_100_463
*640 FILLER_100_527
*641 FILLER_100_531
*642 FILLER_100_534
*643 FILLER_100_598
*644 FILLER_100_602
*645 FILLER_100_605
*646 FILLER_100_669
*647 FILLER_100_673
*648 FILLER_100_676
*649 FILLER_100_740
*650 FILLER_100_744
*651 FILLER_100_747
*652 FILLER_100_811
*653 FILLER_100_815
*654 FILLER_100_818
*655 FILLER_100_882
*656 FILLER_100_886
*657 FILLER_100_889
*658 FILLER_100_953
*659 FILLER_100_957
*660 FILLER_100_960
*661 FILLER_101_1028
*662 FILLER_101_1036
*663 FILLER_101_1044
*664 FILLER_101_137
*665 FILLER_101_141
*666 FILLER_101_144
*667 FILLER_101_2
*668 FILLER_101_208
*669 FILLER_101_212
*670 FILLER_101_215
*671 FILLER_101_279
*672 FILLER_101_283
*673 FILLER_101_286
*674 FILLER_101_350
*675 FILLER_101_354
*676 FILLER_101_357
*677 FILLER_101_421
*678 FILLER_101_425
*679 FILLER_101_428
*680 FILLER_101_492
*681 FILLER_101_496
*682 FILLER_101_499
*683 FILLER_101_563
*684 FILLER_101_567
*685 FILLER_101_570
*686 FILLER_101_634
*687 FILLER_101_638
*688 FILLER_101_641
*689 FILLER_101_66
*690 FILLER_101_70
*691 FILLER_101_705
*692 FILLER_101_709
*693 FILLER_101_712
*694 FILLER_101_73
*695 FILLER_101_776
*696 FILLER_101_780
*697 FILLER_101_783
*698 FILLER_101_847
*699 FILLER_101_851
*700 FILLER_101_854
*701 FILLER_101_918
*702 FILLER_101_922
*703 FILLER_101_925
*704 FILLER_101_989
*705 FILLER_101_993
*706 FILLER_101_996
*707 FILLER_102_101
*708 FILLER_102_1024
*709 FILLER_102_1028
*710 FILLER_102_1031
*711 FILLER_102_1039
*712 FILLER_102_1043
*713 FILLER_102_105
*714 FILLER_102_108
*715 FILLER_102_13
*716 FILLER_102_172
*717 FILLER_102_176
*718 FILLER_102_179
*719 FILLER_102_2
*720 FILLER_102_243
*721 FILLER_102_247
*722 FILLER_102_250
*723 FILLER_102_29
*724 FILLER_102_314
*725 FILLER_102_318
*726 FILLER_102_321
*727 FILLER_102_33
*728 FILLER_102_37
*729 FILLER_102_385
*730 FILLER_102_389
*731 FILLER_102_392
*732 FILLER_102_456
*733 FILLER_102_460
*734 FILLER_102_463
*735 FILLER_102_527
*736 FILLER_102_531
*737 FILLER_102_534
*738 FILLER_102_598
*739 FILLER_102_602
*740 FILLER_102_605
*741 FILLER_102_669
*742 FILLER_102_673
*743 FILLER_102_676
*744 FILLER_102_7
*745 FILLER_102_740
*746 FILLER_102_744
*747 FILLER_102_747
*748 FILLER_102_811
*749 FILLER_102_815
*750 FILLER_102_818
*751 FILLER_102_882
*752 FILLER_102_886
*753 FILLER_102_889
*754 FILLER_102_953
*755 FILLER_102_957
*756 FILLER_102_960
*757 FILLER_103_1028
*758 FILLER_103_1036
*759 FILLER_103_1044
*760 FILLER_103_137
*761 FILLER_103_141
*762 FILLER_103_144
*763 FILLER_103_2
*764 FILLER_103_208
*765 FILLER_103_212
*766 FILLER_103_215
*767 FILLER_103_279
*768 FILLER_103_283
*769 FILLER_103_286
*770 FILLER_103_350
*771 FILLER_103_354
*772 FILLER_103_357
*773 FILLER_103_421
*774 FILLER_103_425
*775 FILLER_103_428
*776 FILLER_103_492
*777 FILLER_103_496
*778 FILLER_103_499
*779 FILLER_103_563
*780 FILLER_103_567
*781 FILLER_103_570
*782 FILLER_103_634
*783 FILLER_103_638
*784 FILLER_103_641
*785 FILLER_103_66
*786 FILLER_103_70
*787 FILLER_103_705
*788 FILLER_103_709
*789 FILLER_103_712
*790 FILLER_103_73
*791 FILLER_103_776
*792 FILLER_103_780
*793 FILLER_103_783
*794 FILLER_103_847
*795 FILLER_103_851
*796 FILLER_103_854
*797 FILLER_103_918
*798 FILLER_103_922
*799 FILLER_103_925
*800 FILLER_103_989
*801 FILLER_103_993
*802 FILLER_103_996
*803 FILLER_104_101
*804 FILLER_104_1024
*805 FILLER_104_1028
*806 FILLER_104_1031
*807 FILLER_104_1039
*808 FILLER_104_1043
*809 FILLER_104_105
*810 FILLER_104_108
*811 FILLER_104_172
*812 FILLER_104_176
*813 FILLER_104_179
*814 FILLER_104_2
*815 FILLER_104_23
*816 FILLER_104_243
*817 FILLER_104_247
*818 FILLER_104_250
*819 FILLER_104_31
*820 FILLER_104_314
*821 FILLER_104_318
*822 FILLER_104_321
*823 FILLER_104_37
*824 FILLER_104_385
*825 FILLER_104_389
*826 FILLER_104_392
*827 FILLER_104_456
*828 FILLER_104_460
*829 FILLER_104_463
*830 FILLER_104_527
*831 FILLER_104_531
*832 FILLER_104_534
*833 FILLER_104_598
*834 FILLER_104_602
*835 FILLER_104_605
*836 FILLER_104_669
*837 FILLER_104_673
*838 FILLER_104_676
*839 FILLER_104_7
*840 FILLER_104_740
*841 FILLER_104_744
*842 FILLER_104_747
*843 FILLER_104_811
*844 FILLER_104_815
*845 FILLER_104_818
*846 FILLER_104_882
*847 FILLER_104_886
*848 FILLER_104_889
*849 FILLER_104_953
*850 FILLER_104_957
*851 FILLER_104_960
*852 FILLER_105_1028
*853 FILLER_105_1044
*854 FILLER_105_137
*855 FILLER_105_141
*856 FILLER_105_144
*857 FILLER_105_2
*858 FILLER_105_208
*859 FILLER_105_212
*860 FILLER_105_215
*861 FILLER_105_279
*862 FILLER_105_283
*863 FILLER_105_286
*864 FILLER_105_350
*865 FILLER_105_354
*866 FILLER_105_357
*867 FILLER_105_421
*868 FILLER_105_425
*869 FILLER_105_428
*870 FILLER_105_492
*871 FILLER_105_496
*872 FILLER_105_499
*873 FILLER_105_563
*874 FILLER_105_567
*875 FILLER_105_570
*876 FILLER_105_634
*877 FILLER_105_638
*878 FILLER_105_641
*879 FILLER_105_66
*880 FILLER_105_70
*881 FILLER_105_705
*882 FILLER_105_709
*883 FILLER_105_712
*884 FILLER_105_73
*885 FILLER_105_776
*886 FILLER_105_780
*887 FILLER_105_783
*888 FILLER_105_847
*889 FILLER_105_851
*890 FILLER_105_854
*891 FILLER_105_918
*892 FILLER_105_922
*893 FILLER_105_925
*894 FILLER_105_989
*895 FILLER_105_993
*896 FILLER_105_996
*897 FILLER_106_101
*898 FILLER_106_1024
*899 FILLER_106_1028
*900 FILLER_106_1031
*901 FILLER_106_1039
*902 FILLER_106_1043
*903 FILLER_106_105
*904 FILLER_106_108
*905 FILLER_106_172
*906 FILLER_106_176
*907 FILLER_106_179
*908 FILLER_106_2
*909 FILLER_106_243
*910 FILLER_106_247
*911 FILLER_106_250
*912 FILLER_106_314
*913 FILLER_106_318
*914 FILLER_106_321
*915 FILLER_106_34
*916 FILLER_106_37
*917 FILLER_106_385
*918 FILLER_106_389
*919 FILLER_106_392
*920 FILLER_106_456
*921 FILLER_106_460
*922 FILLER_106_463
*923 FILLER_106_527
*924 FILLER_106_531
*925 FILLER_106_534
*926 FILLER_106_598
*927 FILLER_106_602
*928 FILLER_106_605
*929 FILLER_106_669
*930 FILLER_106_673
*931 FILLER_106_676
*932 FILLER_106_740
*933 FILLER_106_744
*934 FILLER_106_747
*935 FILLER_106_811
*936 FILLER_106_815
*937 FILLER_106_818
*938 FILLER_106_882
*939 FILLER_106_886
*940 FILLER_106_889
*941 FILLER_106_953
*942 FILLER_106_957
*943 FILLER_106_960
*944 FILLER_107_1028
*945 FILLER_107_1044
*946 FILLER_107_137
*947 FILLER_107_141
*948 FILLER_107_144
*949 FILLER_107_2
*950 FILLER_107_208
*951 FILLER_107_212
*952 FILLER_107_215
*953 FILLER_107_279
*954 FILLER_107_283
*955 FILLER_107_286
*956 FILLER_107_350
*957 FILLER_107_354
*958 FILLER_107_357
*959 FILLER_107_421
*960 FILLER_107_425
*961 FILLER_107_428
*962 FILLER_107_492
*963 FILLER_107_496
*964 FILLER_107_499
*965 FILLER_107_563
*966 FILLER_107_567
*967 FILLER_107_570
*968 FILLER_107_634
*969 FILLER_107_638
*970 FILLER_107_641
*971 FILLER_107_66
*972 FILLER_107_70
*973 FILLER_107_705
*974 FILLER_107_709
*975 FILLER_107_712
*976 FILLER_107_73
*977 FILLER_107_776
*978 FILLER_107_780
*979 FILLER_107_783
*980 FILLER_107_847
*981 FILLER_107_851
*982 FILLER_107_854
*983 FILLER_107_918
*984 FILLER_107_922
*985 FILLER_107_925
*986 FILLER_107_989
*987 FILLER_107_993
*988 FILLER_107_996
*989 FILLER_108_101
*990 FILLER_108_1024
*991 FILLER_108_1028
*992 FILLER_108_1031
*993 FILLER_108_1039
*994 FILLER_108_1044
*995 FILLER_108_105
*996 FILLER_108_108
*997 FILLER_108_172
*998 FILLER_108_176
*999 FILLER_108_179
*1000 FILLER_108_2
*1001 FILLER_108_243
*1002 FILLER_108_247
*1003 FILLER_108_250
*1004 FILLER_108_314
*1005 FILLER_108_318
*1006 FILLER_108_321
*1007 FILLER_108_34
*1008 FILLER_108_37
*1009 FILLER_108_385
*1010 FILLER_108_389
*1011 FILLER_108_392
*1012 FILLER_108_456
*1013 FILLER_108_460
*1014 FILLER_108_463
*1015 FILLER_108_527
*1016 FILLER_108_531
*1017 FILLER_108_534
*1018 FILLER_108_598
*1019 FILLER_108_602
*1020 FILLER_108_605
*1021 FILLER_108_669
*1022 FILLER_108_673
*1023 FILLER_108_676
*1024 FILLER_108_740
*1025 FILLER_108_744
*1026 FILLER_108_747
*1027 FILLER_108_811
*1028 FILLER_108_815
*1029 FILLER_108_818
*1030 FILLER_108_882
*1031 FILLER_108_886
*1032 FILLER_108_889
*1033 FILLER_108_953
*1034 FILLER_108_957
*1035 FILLER_108_960
*1036 FILLER_109_1028
*1037 FILLER_109_1044
*1038 FILLER_109_137
*1039 FILLER_109_141
*1040 FILLER_109_144
*1041 FILLER_109_2
*1042 FILLER_109_208
*1043 FILLER_109_212
*1044 FILLER_109_215
*1045 FILLER_109_279
*1046 FILLER_109_283
*1047 FILLER_109_286
*1048 FILLER_109_350
*1049 FILLER_109_354
*1050 FILLER_109_357
*1051 FILLER_109_421
*1052 FILLER_109_425
*1053 FILLER_109_428
*1054 FILLER_109_492
*1055 FILLER_109_496
*1056 FILLER_109_499
*1057 FILLER_109_563
*1058 FILLER_109_567
*1059 FILLER_109_570
*1060 FILLER_109_634
*1061 FILLER_109_638
*1062 FILLER_109_641
*1063 FILLER_109_66
*1064 FILLER_109_70
*1065 FILLER_109_705
*1066 FILLER_109_709
*1067 FILLER_109_712
*1068 FILLER_109_73
*1069 FILLER_109_776
*1070 FILLER_109_780
*1071 FILLER_109_783
*1072 FILLER_109_847
*1073 FILLER_109_851
*1074 FILLER_109_854
*1075 FILLER_109_918
*1076 FILLER_109_922
*1077 FILLER_109_925
*1078 FILLER_109_989
*1079 FILLER_109_993
*1080 FILLER_109_996
*1081 FILLER_10_101
*1082 FILLER_10_1024
*1083 FILLER_10_1028
*1084 FILLER_10_1031
*1085 FILLER_10_1039
*1086 FILLER_10_1043
*1087 FILLER_10_105
*1088 FILLER_10_108
*1089 FILLER_10_172
*1090 FILLER_10_176
*1091 FILLER_10_179
*1092 FILLER_10_2
*1093 FILLER_10_23
*1094 FILLER_10_243
*1095 FILLER_10_247
*1096 FILLER_10_250
*1097 FILLER_10_31
*1098 FILLER_10_314
*1099 FILLER_10_318
*1100 FILLER_10_321
*1101 FILLER_10_37
*1102 FILLER_10_385
*1103 FILLER_10_389
*1104 FILLER_10_392
*1105 FILLER_10_456
*1106 FILLER_10_460
*1107 FILLER_10_463
*1108 FILLER_10_527
*1109 FILLER_10_531
*1110 FILLER_10_534
*1111 FILLER_10_598
*1112 FILLER_10_602
*1113 FILLER_10_605
*1114 FILLER_10_669
*1115 FILLER_10_673
*1116 FILLER_10_676
*1117 FILLER_10_7
*1118 FILLER_10_740
*1119 FILLER_10_744
*1120 FILLER_10_747
*1121 FILLER_10_811
*1122 FILLER_10_815
*1123 FILLER_10_818
*1124 FILLER_10_882
*1125 FILLER_10_886
*1126 FILLER_10_889
*1127 FILLER_10_953
*1128 FILLER_10_957
*1129 FILLER_10_960
*1130 FILLER_110_101
*1131 FILLER_110_1024
*1132 FILLER_110_1028
*1133 FILLER_110_1031
*1134 FILLER_110_1039
*1135 FILLER_110_1043
*1136 FILLER_110_105
*1137 FILLER_110_108
*1138 FILLER_110_172
*1139 FILLER_110_176
*1140 FILLER_110_179
*1141 FILLER_110_2
*1142 FILLER_110_21
*1143 FILLER_110_243
*1144 FILLER_110_247
*1145 FILLER_110_250
*1146 FILLER_110_29
*1147 FILLER_110_314
*1148 FILLER_110_318
*1149 FILLER_110_321
*1150 FILLER_110_33
*1151 FILLER_110_37
*1152 FILLER_110_385
*1153 FILLER_110_389
*1154 FILLER_110_392
*1155 FILLER_110_456
*1156 FILLER_110_460
*1157 FILLER_110_463
*1158 FILLER_110_5
*1159 FILLER_110_527
*1160 FILLER_110_531
*1161 FILLER_110_534
*1162 FILLER_110_598
*1163 FILLER_110_602
*1164 FILLER_110_605
*1165 FILLER_110_669
*1166 FILLER_110_673
*1167 FILLER_110_676
*1168 FILLER_110_740
*1169 FILLER_110_744
*1170 FILLER_110_747
*1171 FILLER_110_811
*1172 FILLER_110_815
*1173 FILLER_110_818
*1174 FILLER_110_882
*1175 FILLER_110_886
*1176 FILLER_110_889
*1177 FILLER_110_953
*1178 FILLER_110_957
*1179 FILLER_110_960
*1180 FILLER_111_1028
*1181 FILLER_111_1044
*1182 FILLER_111_137
*1183 FILLER_111_141
*1184 FILLER_111_144
*1185 FILLER_111_2
*1186 FILLER_111_208
*1187 FILLER_111_212
*1188 FILLER_111_215
*1189 FILLER_111_279
*1190 FILLER_111_283
*1191 FILLER_111_286
*1192 FILLER_111_350
*1193 FILLER_111_354
*1194 FILLER_111_357
*1195 FILLER_111_41
*1196 FILLER_111_421
*1197 FILLER_111_425
*1198 FILLER_111_428
*1199 FILLER_111_492
*1200 FILLER_111_496
*1201 FILLER_111_499
*1202 FILLER_111_563
*1203 FILLER_111_567
*1204 FILLER_111_57
*1205 FILLER_111_570
*1206 FILLER_111_634
*1207 FILLER_111_638
*1208 FILLER_111_641
*1209 FILLER_111_65
*1210 FILLER_111_69
*1211 FILLER_111_705
*1212 FILLER_111_709
*1213 FILLER_111_712
*1214 FILLER_111_73
*1215 FILLER_111_776
*1216 FILLER_111_780
*1217 FILLER_111_783
*1218 FILLER_111_847
*1219 FILLER_111_851
*1220 FILLER_111_854
*1221 FILLER_111_9
*1222 FILLER_111_918
*1223 FILLER_111_922
*1224 FILLER_111_925
*1225 FILLER_111_989
*1226 FILLER_111_993
*1227 FILLER_111_996
*1228 FILLER_112_101
*1229 FILLER_112_1024
*1230 FILLER_112_1028
*1231 FILLER_112_1031
*1232 FILLER_112_1039
*1233 FILLER_112_1044
*1234 FILLER_112_105
*1235 FILLER_112_108
*1236 FILLER_112_172
*1237 FILLER_112_176
*1238 FILLER_112_179
*1239 FILLER_112_2
*1240 FILLER_112_23
*1241 FILLER_112_243
*1242 FILLER_112_247
*1243 FILLER_112_250
*1244 FILLER_112_31
*1245 FILLER_112_314
*1246 FILLER_112_318
*1247 FILLER_112_321
*1248 FILLER_112_37
*1249 FILLER_112_385
*1250 FILLER_112_389
*1251 FILLER_112_392
*1252 FILLER_112_456
*1253 FILLER_112_460
*1254 FILLER_112_463
*1255 FILLER_112_527
*1256 FILLER_112_531
*1257 FILLER_112_534
*1258 FILLER_112_598
*1259 FILLER_112_602
*1260 FILLER_112_605
*1261 FILLER_112_669
*1262 FILLER_112_673
*1263 FILLER_112_676
*1264 FILLER_112_7
*1265 FILLER_112_740
*1266 FILLER_112_744
*1267 FILLER_112_747
*1268 FILLER_112_811
*1269 FILLER_112_815
*1270 FILLER_112_818
*1271 FILLER_112_882
*1272 FILLER_112_886
*1273 FILLER_112_889
*1274 FILLER_112_953
*1275 FILLER_112_957
*1276 FILLER_112_960
*1277 FILLER_113_1028
*1278 FILLER_113_1044
*1279 FILLER_113_137
*1280 FILLER_113_141
*1281 FILLER_113_144
*1282 FILLER_113_2
*1283 FILLER_113_208
*1284 FILLER_113_212
*1285 FILLER_113_215
*1286 FILLER_113_279
*1287 FILLER_113_283
*1288 FILLER_113_286
*1289 FILLER_113_350
*1290 FILLER_113_354
*1291 FILLER_113_357
*1292 FILLER_113_421
*1293 FILLER_113_425
*1294 FILLER_113_428
*1295 FILLER_113_492
*1296 FILLER_113_496
*1297 FILLER_113_499
*1298 FILLER_113_563
*1299 FILLER_113_567
*1300 FILLER_113_570
*1301 FILLER_113_634
*1302 FILLER_113_638
*1303 FILLER_113_641
*1304 FILLER_113_66
*1305 FILLER_113_70
*1306 FILLER_113_705
*1307 FILLER_113_709
*1308 FILLER_113_712
*1309 FILLER_113_73
*1310 FILLER_113_776
*1311 FILLER_113_780
*1312 FILLER_113_783
*1313 FILLER_113_847
*1314 FILLER_113_851
*1315 FILLER_113_854
*1316 FILLER_113_918
*1317 FILLER_113_922
*1318 FILLER_113_925
*1319 FILLER_113_989
*1320 FILLER_113_993
*1321 FILLER_113_996
*1322 FILLER_114_101
*1323 FILLER_114_1024
*1324 FILLER_114_1028
*1325 FILLER_114_1031
*1326 FILLER_114_1039
*1327 FILLER_114_1043
*1328 FILLER_114_105
*1329 FILLER_114_108
*1330 FILLER_114_172
*1331 FILLER_114_176
*1332 FILLER_114_179
*1333 FILLER_114_2
*1334 FILLER_114_23
*1335 FILLER_114_243
*1336 FILLER_114_247
*1337 FILLER_114_250
*1338 FILLER_114_31
*1339 FILLER_114_314
*1340 FILLER_114_318
*1341 FILLER_114_321
*1342 FILLER_114_37
*1343 FILLER_114_385
*1344 FILLER_114_389
*1345 FILLER_114_392
*1346 FILLER_114_456
*1347 FILLER_114_460
*1348 FILLER_114_463
*1349 FILLER_114_527
*1350 FILLER_114_531
*1351 FILLER_114_534
*1352 FILLER_114_598
*1353 FILLER_114_602
*1354 FILLER_114_605
*1355 FILLER_114_669
*1356 FILLER_114_673
*1357 FILLER_114_676
*1358 FILLER_114_7
*1359 FILLER_114_740
*1360 FILLER_114_744
*1361 FILLER_114_747
*1362 FILLER_114_811
*1363 FILLER_114_815
*1364 FILLER_114_818
*1365 FILLER_114_882
*1366 FILLER_114_886
*1367 FILLER_114_889
*1368 FILLER_114_953
*1369 FILLER_114_957
*1370 FILLER_114_960
*1371 FILLER_115_1028
*1372 FILLER_115_1044
*1373 FILLER_115_137
*1374 FILLER_115_141
*1375 FILLER_115_144
*1376 FILLER_115_2
*1377 FILLER_115_208
*1378 FILLER_115_212
*1379 FILLER_115_215
*1380 FILLER_115_279
*1381 FILLER_115_283
*1382 FILLER_115_286
*1383 FILLER_115_350
*1384 FILLER_115_354
*1385 FILLER_115_357
*1386 FILLER_115_421
*1387 FILLER_115_425
*1388 FILLER_115_428
*1389 FILLER_115_492
*1390 FILLER_115_496
*1391 FILLER_115_499
*1392 FILLER_115_563
*1393 FILLER_115_567
*1394 FILLER_115_570
*1395 FILLER_115_634
*1396 FILLER_115_638
*1397 FILLER_115_641
*1398 FILLER_115_66
*1399 FILLER_115_70
*1400 FILLER_115_705
*1401 FILLER_115_709
*1402 FILLER_115_712
*1403 FILLER_115_73
*1404 FILLER_115_776
*1405 FILLER_115_780
*1406 FILLER_115_783
*1407 FILLER_115_847
*1408 FILLER_115_851
*1409 FILLER_115_854
*1410 FILLER_115_918
*1411 FILLER_115_922
*1412 FILLER_115_925
*1413 FILLER_115_989
*1414 FILLER_115_993
*1415 FILLER_115_996
*1416 FILLER_116_101
*1417 FILLER_116_1024
*1418 FILLER_116_1028
*1419 FILLER_116_1031
*1420 FILLER_116_1039
*1421 FILLER_116_1043
*1422 FILLER_116_105
*1423 FILLER_116_108
*1424 FILLER_116_172
*1425 FILLER_116_176
*1426 FILLER_116_179
*1427 FILLER_116_2
*1428 FILLER_116_243
*1429 FILLER_116_247
*1430 FILLER_116_250
*1431 FILLER_116_314
*1432 FILLER_116_318
*1433 FILLER_116_321
*1434 FILLER_116_34
*1435 FILLER_116_37
*1436 FILLER_116_385
*1437 FILLER_116_389
*1438 FILLER_116_392
*1439 FILLER_116_456
*1440 FILLER_116_460
*1441 FILLER_116_463
*1442 FILLER_116_527
*1443 FILLER_116_531
*1444 FILLER_116_534
*1445 FILLER_116_598
*1446 FILLER_116_602
*1447 FILLER_116_605
*1448 FILLER_116_669
*1449 FILLER_116_673
*1450 FILLER_116_676
*1451 FILLER_116_740
*1452 FILLER_116_744
*1453 FILLER_116_747
*1454 FILLER_116_811
*1455 FILLER_116_815
*1456 FILLER_116_818
*1457 FILLER_116_882
*1458 FILLER_116_886
*1459 FILLER_116_889
*1460 FILLER_116_953
*1461 FILLER_116_957
*1462 FILLER_116_960
*1463 FILLER_117_1028
*1464 FILLER_117_1044
*1465 FILLER_117_137
*1466 FILLER_117_141
*1467 FILLER_117_144
*1468 FILLER_117_2
*1469 FILLER_117_208
*1470 FILLER_117_212
*1471 FILLER_117_215
*1472 FILLER_117_279
*1473 FILLER_117_283
*1474 FILLER_117_286
*1475 FILLER_117_350
*1476 FILLER_117_354
*1477 FILLER_117_357
*1478 FILLER_117_421
*1479 FILLER_117_425
*1480 FILLER_117_428
*1481 FILLER_117_492
*1482 FILLER_117_496
*1483 FILLER_117_499
*1484 FILLER_117_563
*1485 FILLER_117_567
*1486 FILLER_117_570
*1487 FILLER_117_634
*1488 FILLER_117_638
*1489 FILLER_117_641
*1490 FILLER_117_7
*1491 FILLER_117_705
*1492 FILLER_117_709
*1493 FILLER_117_712
*1494 FILLER_117_73
*1495 FILLER_117_776
*1496 FILLER_117_780
*1497 FILLER_117_783
*1498 FILLER_117_847
*1499 FILLER_117_851
*1500 FILLER_117_854
*1501 FILLER_117_918
*1502 FILLER_117_922
*1503 FILLER_117_925
*1504 FILLER_117_989
*1505 FILLER_117_993
*1506 FILLER_117_996
*1507 FILLER_118_101
*1508 FILLER_118_1024
*1509 FILLER_118_1028
*1510 FILLER_118_1031
*1511 FILLER_118_1039
*1512 FILLER_118_1044
*1513 FILLER_118_105
*1514 FILLER_118_108
*1515 FILLER_118_172
*1516 FILLER_118_176
*1517 FILLER_118_179
*1518 FILLER_118_2
*1519 FILLER_118_243
*1520 FILLER_118_247
*1521 FILLER_118_250
*1522 FILLER_118_314
*1523 FILLER_118_318
*1524 FILLER_118_321
*1525 FILLER_118_34
*1526 FILLER_118_37
*1527 FILLER_118_385
*1528 FILLER_118_389
*1529 FILLER_118_392
*1530 FILLER_118_456
*1531 FILLER_118_460
*1532 FILLER_118_463
*1533 FILLER_118_527
*1534 FILLER_118_531
*1535 FILLER_118_534
*1536 FILLER_118_598
*1537 FILLER_118_602
*1538 FILLER_118_605
*1539 FILLER_118_669
*1540 FILLER_118_673
*1541 FILLER_118_676
*1542 FILLER_118_740
*1543 FILLER_118_744
*1544 FILLER_118_747
*1545 FILLER_118_811
*1546 FILLER_118_815
*1547 FILLER_118_818
*1548 FILLER_118_882
*1549 FILLER_118_886
*1550 FILLER_118_889
*1551 FILLER_118_953
*1552 FILLER_118_957
*1553 FILLER_118_960
*1554 FILLER_119_1028
*1555 FILLER_119_1044
*1556 FILLER_119_137
*1557 FILLER_119_141
*1558 FILLER_119_144
*1559 FILLER_119_2
*1560 FILLER_119_208
*1561 FILLER_119_212
*1562 FILLER_119_215
*1563 FILLER_119_279
*1564 FILLER_119_283
*1565 FILLER_119_286
*1566 FILLER_119_350
*1567 FILLER_119_354
*1568 FILLER_119_357
*1569 FILLER_119_421
*1570 FILLER_119_425
*1571 FILLER_119_428
*1572 FILLER_119_492
*1573 FILLER_119_496
*1574 FILLER_119_499
*1575 FILLER_119_563
*1576 FILLER_119_567
*1577 FILLER_119_570
*1578 FILLER_119_634
*1579 FILLER_119_638
*1580 FILLER_119_641
*1581 FILLER_119_7
*1582 FILLER_119_705
*1583 FILLER_119_709
*1584 FILLER_119_712
*1585 FILLER_119_73
*1586 FILLER_119_776
*1587 FILLER_119_780
*1588 FILLER_119_783
*1589 FILLER_119_847
*1590 FILLER_119_851
*1591 FILLER_119_854
*1592 FILLER_119_918