*SPEF "ieee 1481-1999"
*DESIGN "user_project_wrapper"
*DATE "11:11:11 Fri 11 11, 1111"
*VENDOR "OpenRCX"
*PROGRAM "Parallel Extraction"
*VERSION "1.0"
*DESIGN_FLOW "NAME_SCOPE LOCAL" "PIN_CAP NONE"
*DIVIDER /
*DELIMITER :
*BUS_DELIMITER []
*T_UNIT 1 NS
*C_UNIT 1 PF
*R_UNIT 1 OHM
*L_UNIT 1 HENRY

*NAME_MAP
*1 io_in[0]
*2 io_in[10]
*3 io_in[11]
*4 io_in[12]
*5 io_in[13]
*6 io_in[14]
*7 io_in[15]
*8 io_in[16]
*9 io_in[17]
*10 io_in[18]
*11 io_in[19]
*12 io_in[1]
*13 io_in[20]
*14 io_in[21]
*15 io_in[22]
*16 io_in[23]
*17 io_in[24]
*18 io_in[25]
*19 io_in[26]
*20 io_in[27]
*21 io_in[28]
*22 io_in[29]
*23 io_in[2]
*24 io_in[30]
*25 io_in[31]
*26 io_in[32]
*27 io_in[33]
*28 io_in[34]
*29 io_in[35]
*30 io_in[36]
*31 io_in[37]
*32 io_in[3]
*33 io_in[4]
*34 io_in[5]
*35 io_in[6]
*36 io_in[7]
*37 io_in[8]
*38 io_in[9]
*39 io_oeb[0]
*40 io_oeb[10]
*41 io_oeb[11]
*42 io_oeb[12]
*43 io_oeb[13]
*44 io_oeb[14]
*45 io_oeb[15]
*46 io_oeb[16]
*47 io_oeb[17]
*48 io_oeb[18]
*49 io_oeb[19]
*50 io_oeb[1]
*51 io_oeb[20]
*52 io_oeb[21]
*53 io_oeb[22]
*54 io_oeb[23]
*55 io_oeb[24]
*56 io_oeb[25]
*57 io_oeb[26]
*58 io_oeb[27]
*59 io_oeb[28]
*60 io_oeb[29]
*61 io_oeb[2]
*62 io_oeb[30]
*63 io_oeb[31]
*64 io_oeb[32]
*65 io_oeb[33]
*66 io_oeb[34]
*67 io_oeb[35]
*68 io_oeb[36]
*69 io_oeb[37]
*70 io_oeb[3]
*71 io_oeb[4]
*72 io_oeb[5]
*73 io_oeb[6]
*74 io_oeb[7]
*75 io_oeb[8]
*76 io_oeb[9]
*77 io_out[0]
*78 io_out[10]
*79 io_out[11]
*80 io_out[12]
*81 io_out[13]
*82 io_out[14]
*83 io_out[15]
*84 io_out[16]
*85 io_out[17]
*86 io_out[18]
*87 io_out[19]
*88 io_out[1]
*89 io_out[20]
*90 io_out[21]
*91 io_out[22]
*92 io_out[23]
*93 io_out[24]
*94 io_out[25]
*95 io_out[26]
*96 io_out[27]
*97 io_out[28]
*98 io_out[29]
*99 io_out[2]
*100 io_out[30]
*101 io_out[31]
*102 io_out[32]
*103 io_out[33]
*104 io_out[34]
*105 io_out[35]
*106 io_out[36]
*107 io_out[37]
*108 io_out[3]
*109 io_out[4]
*110 io_out[5]
*111 io_out[6]
*112 io_out[7]
*113 io_out[8]
*114 io_out[9]
*115 la_data_in[0]
*116 la_data_in[10]
*117 la_data_in[11]
*118 la_data_in[12]
*119 la_data_in[13]
*120 la_data_in[14]
*121 la_data_in[15]
*122 la_data_in[16]
*123 la_data_in[17]
*124 la_data_in[18]
*125 la_data_in[19]
*126 la_data_in[1]
*127 la_data_in[20]
*128 la_data_in[21]
*129 la_data_in[22]
*130 la_data_in[23]
*131 la_data_in[24]
*132 la_data_in[25]
*133 la_data_in[26]
*134 la_data_in[27]
*135 la_data_in[28]
*136 la_data_in[29]
*137 la_data_in[2]
*138 la_data_in[30]
*139 la_data_in[31]
*140 la_data_in[32]
*141 la_data_in[33]
*142 la_data_in[34]
*143 la_data_in[35]
*144 la_data_in[36]
*145 la_data_in[37]
*146 la_data_in[38]
*147 la_data_in[39]
*148 la_data_in[3]
*149 la_data_in[40]
*150 la_data_in[41]
*151 la_data_in[42]
*152 la_data_in[43]
*153 la_data_in[44]
*154 la_data_in[45]
*155 la_data_in[46]
*156 la_data_in[47]
*157 la_data_in[48]
*158 la_data_in[49]
*159 la_data_in[4]
*160 la_data_in[50]
*161 la_data_in[51]
*162 la_data_in[52]
*163 la_data_in[53]
*164 la_data_in[54]
*165 la_data_in[55]
*166 la_data_in[56]
*167 la_data_in[57]
*168 la_data_in[58]
*169 la_data_in[59]
*170 la_data_in[5]
*171 la_data_in[60]
*172 la_data_in[61]
*173 la_data_in[62]
*174 la_data_in[63]
*175 la_data_in[6]
*176 la_data_in[7]
*177 la_data_in[8]
*178 la_data_in[9]
*179 la_data_out[0]
*180 la_data_out[10]
*181 la_data_out[11]
*182 la_data_out[12]
*183 la_data_out[13]
*184 la_data_out[14]
*185 la_data_out[15]
*186 la_data_out[16]
*187 la_data_out[17]
*188 la_data_out[18]
*189 la_data_out[19]
*190 la_data_out[1]
*191 la_data_out[20]
*192 la_data_out[21]
*193 la_data_out[22]
*194 la_data_out[23]
*195 la_data_out[24]
*196 la_data_out[25]
*197 la_data_out[26]
*198 la_data_out[27]
*199 la_data_out[28]
*200 la_data_out[29]
*201 la_data_out[2]
*202 la_data_out[30]
*203 la_data_out[31]
*204 la_data_out[32]
*205 la_data_out[33]
*206 la_data_out[34]
*207 la_data_out[35]
*208 la_data_out[36]
*209 la_data_out[37]
*210 la_data_out[38]
*211 la_data_out[39]
*212 la_data_out[3]
*213 la_data_out[40]
*214 la_data_out[41]
*215 la_data_out[42]
*216 la_data_out[43]
*217 la_data_out[44]
*218 la_data_out[45]
*219 la_data_out[46]
*220 la_data_out[47]
*221 la_data_out[48]
*222 la_data_out[49]
*223 la_data_out[4]
*224 la_data_out[50]
*225 la_data_out[51]
*226 la_data_out[52]
*227 la_data_out[53]
*228 la_data_out[54]
*229 la_data_out[55]
*230 la_data_out[56]
*231 la_data_out[57]
*232 la_data_out[58]
*233 la_data_out[59]
*234 la_data_out[5]
*235 la_data_out[60]
*236 la_data_out[61]
*237 la_data_out[62]
*238 la_data_out[63]
*239 la_data_out[6]
*240 la_data_out[7]
*241 la_data_out[8]
*242 la_data_out[9]
*243 la_oenb[0]
*244 la_oenb[10]
*245 la_oenb[11]
*246 la_oenb[12]
*247 la_oenb[13]
*248 la_oenb[14]
*249 la_oenb[15]
*250 la_oenb[16]
*251 la_oenb[17]
*252 la_oenb[18]
*253 la_oenb[19]
*254 la_oenb[1]
*255 la_oenb[20]
*256 la_oenb[21]
*257 la_oenb[22]
*258 la_oenb[23]
*259 la_oenb[24]
*260 la_oenb[25]
*261 la_oenb[26]
*262 la_oenb[27]
*263 la_oenb[28]
*264 la_oenb[29]
*265 la_oenb[2]
*266 la_oenb[30]
*267 la_oenb[31]
*268 la_oenb[32]
*269 la_oenb[33]
*270 la_oenb[34]
*271 la_oenb[35]
*272 la_oenb[36]
*273 la_oenb[37]
*274 la_oenb[38]
*275 la_oenb[39]
*276 la_oenb[3]
*277 la_oenb[40]
*278 la_oenb[41]
*279 la_oenb[42]
*280 la_oenb[43]
*281 la_oenb[44]
*282 la_oenb[45]
*283 la_oenb[46]
*284 la_oenb[47]
*285 la_oenb[48]
*286 la_oenb[49]
*287 la_oenb[4]
*288 la_oenb[50]
*289 la_oenb[51]
*290 la_oenb[52]
*291 la_oenb[53]
*292 la_oenb[54]
*293 la_oenb[55]
*294 la_oenb[56]
*295 la_oenb[57]
*296 la_oenb[58]
*297 la_oenb[59]
*298 la_oenb[5]
*299 la_oenb[60]
*300 la_oenb[61]
*301 la_oenb[62]
*302 la_oenb[63]
*303 la_oenb[6]
*304 la_oenb[7]
*305 la_oenb[8]
*306 la_oenb[9]
*307 user_clock2
*308 user_irq[0]
*309 user_irq[1]
*310 user_irq[2]
*313 wb_clk_i
*314 wb_rst_i
*315 wbs_ack_o
*316 wbs_adr_i[0]
*317 wbs_adr_i[10]
*318 wbs_adr_i[11]
*319 wbs_adr_i[12]
*320 wbs_adr_i[13]
*321 wbs_adr_i[14]
*322 wbs_adr_i[15]
*323 wbs_adr_i[16]
*324 wbs_adr_i[17]
*325 wbs_adr_i[18]
*326 wbs_adr_i[19]
*327 wbs_adr_i[1]
*328 wbs_adr_i[20]
*329 wbs_adr_i[21]
*330 wbs_adr_i[22]
*331 wbs_adr_i[23]
*332 wbs_adr_i[24]
*333 wbs_adr_i[25]
*334 wbs_adr_i[26]
*335 wbs_adr_i[27]
*336 wbs_adr_i[28]
*337 wbs_adr_i[29]
*338 wbs_adr_i[2]
*339 wbs_adr_i[30]
*340 wbs_adr_i[31]
*341 wbs_adr_i[3]
*342 wbs_adr_i[4]
*343 wbs_adr_i[5]
*344 wbs_adr_i[6]
*345 wbs_adr_i[7]
*346 wbs_adr_i[8]
*347 wbs_adr_i[9]
*348 wbs_cyc_i
*349 wbs_dat_i[0]
*350 wbs_dat_i[10]
*351 wbs_dat_i[11]
*352 wbs_dat_i[12]
*353 wbs_dat_i[13]
*354 wbs_dat_i[14]
*355 wbs_dat_i[15]
*356 wbs_dat_i[16]
*357 wbs_dat_i[17]
*358 wbs_dat_i[18]
*359 wbs_dat_i[19]
*360 wbs_dat_i[1]
*361 wbs_dat_i[20]
*362 wbs_dat_i[21]
*363 wbs_dat_i[22]
*364 wbs_dat_i[23]
*365 wbs_dat_i[24]
*366 wbs_dat_i[25]
*367 wbs_dat_i[26]
*368 wbs_dat_i[27]
*369 wbs_dat_i[28]
*370 wbs_dat_i[29]
*371 wbs_dat_i[2]
*372 wbs_dat_i[30]
*373 wbs_dat_i[31]
*374 wbs_dat_i[3]
*375 wbs_dat_i[4]
*376 wbs_dat_i[5]
*377 wbs_dat_i[6]
*378 wbs_dat_i[7]
*379 wbs_dat_i[8]
*380 wbs_dat_i[9]
*381 wbs_dat_o[0]
*382 wbs_dat_o[10]
*383 wbs_dat_o[11]
*384 wbs_dat_o[12]
*385 wbs_dat_o[13]
*386 wbs_dat_o[14]
*387 wbs_dat_o[15]
*388 wbs_dat_o[16]
*389 wbs_dat_o[17]
*390 wbs_dat_o[18]
*391 wbs_dat_o[19]
*392 wbs_dat_o[1]
*393 wbs_dat_o[20]
*394 wbs_dat_o[21]
*395 wbs_dat_o[22]
*396 wbs_dat_o[23]
*397 wbs_dat_o[24]
*398 wbs_dat_o[25]
*399 wbs_dat_o[26]
*400 wbs_dat_o[27]
*401 wbs_dat_o[28]
*402 wbs_dat_o[29]
*403 wbs_dat_o[2]
*404 wbs_dat_o[30]
*405 wbs_dat_o[31]
*406 wbs_dat_o[3]
*407 wbs_dat_o[4]
*408 wbs_dat_o[5]
*409 wbs_dat_o[6]
*410 wbs_dat_o[7]
*411 wbs_dat_o[8]
*412 wbs_dat_o[9]
*413 wbs_sel_i[0]
*414 wbs_sel_i[1]
*415 wbs_sel_i[2]
*416 wbs_sel_i[3]
*417 wbs_stb_i
*418 wbs_we_i
*419 mprj

*PORTS
io_in[0] I
io_in[10] I
io_in[11] I
io_in[12] I
io_in[13] I
io_in[14] I
io_in[15] I
io_in[16] I
io_in[17] I
io_in[18] I
io_in[19] I
io_in[1] I
io_in[20] I
io_in[21] I
io_in[22] I
io_in[23] I
io_in[24] I
io_in[25] I
io_in[26] I
io_in[27] I
io_in[28] I
io_in[29] I
io_in[2] I
io_in[30] I
io_in[31] I
io_in[32] I
io_in[33] I
io_in[34] I
io_in[35] I
io_in[36] I
io_in[37] I
io_in[3] I
io_in[4] I
io_in[5] I
io_in[6] I
io_in[7] I
io_in[8] I
io_in[9] I
io_oeb[0] O
io_oeb[10] O
io_oeb[11] O
io_oeb[12] O
io_oeb[13] O
io_oeb[14] O
io_oeb[15] O
io_oeb[16] O
io_oeb[17] O
io_oeb[18] O
io_oeb[19] O
io_oeb[1] O
io_oeb[20] O
io_oeb[21] O
io_oeb[22] O
io_oeb[23] O
io_oeb[24] O
io_oeb[25] O
io_oeb[26] O
io_oeb[27] O
io_oeb[28] O
io_oeb[29] O
io_oeb[2] O
io_oeb[30] O
io_oeb[31] O
io_oeb[32] O
io_oeb[33] O
io_oeb[34] O
io_oeb[35] O
io_oeb[36] O
io_oeb[37] O
io_oeb[3] O
io_oeb[4] O
io_oeb[5] O
io_oeb[6] O
io_oeb[7] O
io_oeb[8] O
io_oeb[9] O
io_out[0] O
io_out[10] O
io_out[11] O
io_out[12] O
io_out[13] O
io_out[14] O
io_out[15] O
io_out[16] O
io_out[17] O
io_out[18] O
io_out[19] O
io_out[1] O
io_out[20] O
io_out[21] O
io_out[22] O
io_out[23] O
io_out[24] O
io_out[25] O
io_out[26] O
io_out[27] O
io_out[28] O
io_out[29] O
io_out[2] O
io_out[30] O
io_out[31] O
io_out[32] O
io_out[33] O
io_out[34] O
io_out[35] O
io_out[36] O
io_out[37] O
io_out[3] O
io_out[4] O
io_out[5] O
io_out[6] O
io_out[7] O
io_out[8] O
io_out[9] O
la_data_in[0] I
la_data_in[10] I
la_data_in[11] I
la_data_in[12] I
la_data_in[13] I
la_data_in[14] I
la_data_in[15] I
la_data_in[16] I
la_data_in[17] I
la_data_in[18] I
la_data_in[19] I
la_data_in[1] I
la_data_in[20] I
la_data_in[21] I
la_data_in[22] I
la_data_in[23] I
la_data_in[24] I
la_data_in[25] I
la_data_in[26] I
la_data_in[27] I
la_data_in[28] I
la_data_in[29] I
la_data_in[2] I
la_data_in[30] I
la_data_in[31] I
la_data_in[32] I
la_data_in[33] I
la_data_in[34] I
la_data_in[35] I
la_data_in[36] I
la_data_in[37] I
la_data_in[38] I
la_data_in[39] I
la_data_in[3] I
la_data_in[40] I
la_data_in[41] I
la_data_in[42] I
la_data_in[43] I
la_data_in[44] I
la_data_in[45] I
la_data_in[46] I
la_data_in[47] I
la_data_in[48] I
la_data_in[49] I
la_data_in[4] I
la_data_in[50] I
la_data_in[51] I
la_data_in[52] I
la_data_in[53] I
la_data_in[54] I
la_data_in[55] I
la_data_in[56] I
la_data_in[57] I
la_data_in[58] I
la_data_in[59] I
la_data_in[5] I
la_data_in[60] I
la_data_in[61] I
la_data_in[62] I
la_data_in[63] I
la_data_in[6] I
la_data_in[7] I
la_data_in[8] I
la_data_in[9] I
la_data_out[0] O
la_data_out[10] O
la_data_out[11] O
la_data_out[12] O
la_data_out[13] O
la_data_out[14] O
la_data_out[15] O
la_data_out[16] O
la_data_out[17] O
la_data_out[18] O
la_data_out[19] O
la_data_out[1] O
la_data_out[20] O
la_data_out[21] O
la_data_out[22] O
la_data_out[23] O
la_data_out[24] O
la_data_out[25] O
la_data_out[26] O
la_data_out[27] O
la_data_out[28] O
la_data_out[29] O
la_data_out[2] O
la_data_out[30] O
la_data_out[31] O
la_data_out[32] O
la_data_out[33] O
la_data_out[34] O
la_data_out[35] O
la_data_out[36] O
la_data_out[37] O
la_data_out[38] O
la_data_out[39] O
la_data_out[3] O
la_data_out[40] O
la_data_out[41] O
la_data_out[42] O
la_data_out[43] O
la_data_out[44] O
la_data_out[45] O
la_data_out[46] O
la_data_out[47] O
la_data_out[48] O
la_data_out[49] O
la_data_out[4] O
la_data_out[50] O
la_data_out[51] O
la_data_out[52] O
la_data_out[53] O
la_data_out[54] O
la_data_out[55] O
la_data_out[56] O
la_data_out[57] O
la_data_out[58] O
la_data_out[59] O
la_data_out[5] O
la_data_out[60] O
la_data_out[61] O
la_data_out[62] O
la_data_out[63] O
la_data_out[6] O
la_data_out[7] O
la_data_out[8] O
la_data_out[9] O
la_oenb[0] I
la_oenb[10] I
la_oenb[11] I
la_oenb[12] I
la_oenb[13] I
la_oenb[14] I
la_oenb[15] I
la_oenb[16] I
la_oenb[17] I
la_oenb[18] I
la_oenb[19] I
la_oenb[1] I
la_oenb[20] I
la_oenb[21] I
la_oenb[22] I
la_oenb[23] I
la_oenb[24] I
la_oenb[25] I
la_oenb[26] I
la_oenb[27] I
la_oenb[28] I
la_oenb[29] I
la_oenb[2] I
la_oenb[30] I
la_oenb[31] I
la_oenb[32] I
la_oenb[33] I
la_oenb[34] I
la_oenb[35] I
la_oenb[36] I
la_oenb[37] I
la_oenb[38] I
la_oenb[39] I
la_oenb[3] I
la_oenb[40] I
la_oenb[41] I
la_oenb[42] I
la_oenb[43] I
la_oenb[44] I
la_oenb[45] I
la_oenb[46] I
la_oenb[47] I
la_oenb[48] I
la_oenb[49] I
la_oenb[4] I
la_oenb[50] I
la_oenb[51] I
la_oenb[52] I
la_oenb[53] I
la_oenb[54] I
la_oenb[55] I
la_oenb[56] I
la_oenb[57] I
la_oenb[58] I
la_oenb[59] I
la_oenb[5] I
la_oenb[60] I
la_oenb[61] I
la_oenb[62] I
la_oenb[63] I
la_oenb[6] I
la_oenb[7] I
la_oenb[8] I
la_oenb[9] I
user_clock2 I
user_irq[0] O
user_irq[1] O
user_irq[2] O
wb_clk_i I
wb_rst_i I
wbs_ack_o O
wbs_adr_i[0] I
wbs_adr_i[10] I
wbs_adr_i[11] I
wbs_adr_i[12] I
wbs_adr_i[13] I
wbs_adr_i[14] I
wbs_adr_i[15] I
wbs_adr_i[16] I
wbs_adr_i[17] I
wbs_adr_i[18] I
wbs_adr_i[19] I
wbs_adr_i[1] I
wbs_adr_i[20] I
wbs_adr_i[21] I
wbs_adr_i[22] I
wbs_adr_i[23] I
wbs_adr_i[24] I
wbs_adr_i[25] I
wbs_adr_i[26] I
wbs_adr_i[27] I
wbs_adr_i[28] I
wbs_adr_i[29] I
wbs_adr_i[2] I
wbs_adr_i[30] I
wbs_adr_i[31] I
wbs_adr_i[3] I
wbs_adr_i[4] I
wbs_adr_i[5] I
wbs_adr_i[6] I
wbs_adr_i[7] I
wbs_adr_i[8] I
wbs_adr_i[9] I
wbs_cyc_i I
wbs_dat_i[0] I
wbs_dat_i[10] I
wbs_dat_i[11] I
wbs_dat_i[12] I
wbs_dat_i[13] I
wbs_dat_i[14] I
wbs_dat_i[15] I
wbs_dat_i[16] I
wbs_dat_i[17] I
wbs_dat_i[18] I
wbs_dat_i[19] I
wbs_dat_i[1] I
wbs_dat_i[20] I
wbs_dat_i[21] I
wbs_dat_i[22] I
wbs_dat_i[23] I
wbs_dat_i[24] I
wbs_dat_i[25] I
wbs_dat_i[26] I
wbs_dat_i[27] I
wbs_dat_i[28] I
wbs_dat_i[29] I
wbs_dat_i[2] I
wbs_dat_i[30] I
wbs_dat_i[31] I
wbs_dat_i[3] I
wbs_dat_i[4] I
wbs_dat_i[5] I
wbs_dat_i[6] I
wbs_dat_i[7] I
wbs_dat_i[8] I
wbs_dat_i[9] I
wbs_dat_o[0] O
wbs_dat_o[10] O
wbs_dat_o[11] O
wbs_dat_o[12] O
wbs_dat_o[13] O
wbs_dat_o[14] O
wbs_dat_o[15] O
wbs_dat_o[16] O
wbs_dat_o[17] O
wbs_dat_o[18] O
wbs_dat_o[19] O
wbs_dat_o[1] O
wbs_dat_o[20] O
wbs_dat_o[21] O
wbs_dat_o[22] O
wbs_dat_o[23] O
wbs_dat_o[24] O
wbs_dat_o[25] O
wbs_dat_o[26] O
wbs_dat_o[27] O
wbs_dat_o[28] O
wbs_dat_o[29] O
wbs_dat_o[2] O
wbs_dat_o[30] O
wbs_dat_o[31] O
wbs_dat_o[3] O
wbs_dat_o[4] O
wbs_dat_o[5] O
wbs_dat_o[6] O
wbs_dat_o[7] O
wbs_dat_o[8] O
wbs_dat_o[9] O
wbs_sel_i[0] I
wbs_sel_i[1] I
wbs_sel_i[2] I
wbs_sel_i[3] I
wbs_stb_i I
wbs_we_i I

*D_NET *1 0.645865
*CONN
*P io_in[0] I
*I *419:io_in[0] I *D system_wrapper
*CAP
1 io_in[0] 0.00074722
2 *419:io_in[0] 0.0036285
3 *1:14 0.0116466
4 *1:13 0.00801811
5 *1:11 0.0391954
6 *1:10 0.0391954
7 *1:8 0.0397482
8 *1:7 0.0404954
9 *1:11 *220:14 0.0533829
10 *1:11 *301:8 0.0737956
11 *1:11 *315:15 0.177743
12 *1:14 *60:101 8.95063e-06
13 *1:14 *151:11 0.0751853
14 *1:14 *351:19 0.00113852
15 *1:14 *373:19 0.0819366
*RES
1 io_in[0] *1:7 12.825 
2 *1:7 *1:8 397.35 
3 *1:8 *1:10 4.5 
4 *1:10 *1:11 663.21 
5 *1:11 *1:13 4.5 
6 *1:13 *1:14 183.69 
7 *1:14 *419:io_in[0] 49.68 
*END

*D_NET *2 0.802554
*CONN
*P io_in[10] I
*I *419:io_in[10] I *D system_wrapper
*CAP
1 io_in[10] 0.00219789
2 *419:io_in[10] 0.00138645
3 *2:18 0.00574792
4 *2:17 0.00436147
5 *2:15 0.0113397
6 *2:13 0.0129125
7 *2:10 0.00377074
8 *419:io_in[10] *220:10 0.000497464
9 *2:10 *36:8 0.0113545
10 *2:13 io_out[10] 0.000808207
11 *2:13 *78:17 0.00629986
12 *2:15 *60:51 0.0145683
13 *2:15 *68:9 0.00244534
14 *2:15 *78:17 0.30401
15 *2:15 *81:16 0.00034815
16 *2:15 *135:12 0.000525852
17 *2:15 *225:16 0.00126412
18 *2:15 *225:18 0.012608
19 *2:15 *227:14 0.354678
20 *2:15 *348:14 0.000180292
21 *2:18 *6:14 0.0512487
22 *2:18 *60:83 0
*RES
1 io_in[10] *2:10 38.295 
2 *2:10 *2:13 28.89 
3 *2:13 *2:15 613.08 
4 *2:15 *2:17 4.5 
5 *2:17 *2:18 75.15 
6 *2:18 *419:io_in[10] 27.9 
*END

*D_NET *3 0.265153
*CONN
*P io_in[11] I
*I *419:io_in[11] I *D system_wrapper
*CAP
1 io_in[11] 0.00025457
2 *419:io_in[11] 0.000634123
3 *3:16 0.0106315
4 *3:15 0.00999738
5 *3:13 0.0656007
6 *3:11 0.0658553
7 *419:io_in[11] *419:io_in[14] 0.000230228
8 *3:16 *82:11 0.0735895
9 *3:16 *126:11 0.0184127
10 *3:16 *299:15 0.0199471
*RES
1 io_in[11] *3:11 3.195 
2 *3:11 *3:13 641.97 
3 *3:13 *3:15 4.5 
4 *3:15 *3:16 188.91 
5 *3:16 *419:io_in[11] 20.16 
*END

*D_NET *4 0.245934
*CONN
*P io_in[12] I
*I *419:io_in[12] I *D system_wrapper
*CAP
1 io_in[12] 0.000125412
2 *419:io_in[12] 0.000136533
3 *4:16 0.0109387
4 *4:15 0.0108022
5 *4:13 0.0583426
6 *4:11 0.058468
7 *4:16 *48:12 0.00617849
8 *4:16 *137:23 0.0678202
9 *4:16 *179:16 0.0182081
10 *4:16 *225:16 0.0149143
*RES
1 io_in[12] *4:11 2.115 
2 *4:11 *4:13 636.57 
3 *4:13 *4:15 4.5 
4 *4:15 *4:16 200.79 
5 *4:16 *419:io_in[12] 14.76 
*END

*D_NET *5 0.298665
*CONN
*P io_in[13] I
*I *419:io_in[13] I *D system_wrapper
*CAP
1 io_in[13] 0.0592836
2 *419:io_in[13] 0.00110514
3 *5:8 0.0234658
4 *5:7 0.0223607
5 *5:5 0.0592836
6 *419:io_in[13] *419:la_data_in[32] 0.000410498
7 *5:5 *54:13 0
8 *5:8 *122:19 0.0942117
9 *5:8 *145:22 0.0198244
10 *5:8 *247:11 0.0187196
*RES
1 io_in[13] *5:5 647.145 
2 *5:5 *5:7 4.5 
3 *5:7 *5:8 305.55 
4 *5:8 *419:io_in[13] 25.38 
*END

*D_NET *6 0.26383
*CONN
*P io_in[14] I
*I *419:io_in[14] I *D system_wrapper
*CAP
1 io_in[14] 0.000855781
2 *419:io_in[14] 0.00147493
3 *6:14 0.0166524
4 *6:13 0.0151775
5 *6:11 0.0588561
6 *6:10 0.0588561
7 *6:8 0.0158073
8 *6:7 0.0166631
9 *6:8 *41:17 0.0112318
10 *6:14 *128:15 0.0103111
11 *6:14 *233:11 0.00448043
12 *6:14 *339:15 0.00198448
13 *419:io_in[11] *419:io_in[14] 0.000230228
14 *2:18 *6:14 0.0512487
*RES
1 io_in[14] *6:7 12.825 
2 *6:7 *6:8 165.15 
3 *6:8 *6:10 4.5 
4 *6:10 *6:11 641.61 
5 *6:11 *6:13 4.5 
6 *6:13 *6:14 216.09 
7 *6:14 *419:io_in[14] 28.08 
*END

*D_NET *7 0.155421
*CONN
*P io_in[15] I
*I *419:io_in[15] I *D system_wrapper
*CAP
1 io_in[15] 0.0262439
2 *419:io_in[15] 6.39038e-05
3 *7:19 0.00323069
4 *7:8 0.0506706
5 *7:7 0.0475038
6 *7:5 0.0262439
7 *419:io_in[15] *207:10 2.79764e-05
8 *7:8 *270:12 0
9 *7:19 *419:la_data_in[39] 0
10 *7:19 *60:38 0
11 *7:19 *64:13 0.000170967
12 *7:19 *207:10 0.00012582
13 *7:19 *411:13 0.00113956
*RES
1 io_in[15] *7:5 262.125 
2 *7:5 *7:7 4.5 
3 *7:7 *7:8 517.23 
4 *7:8 *7:19 49.59 
5 *7:19 *419:io_in[15] 5.31 
*END

*D_NET *8 0.15336
*CONN
*P io_in[16] I
*I *419:io_in[16] I *D system_wrapper
*CAP
1 io_in[16] 0.000194772
2 *419:io_in[16] 0.00129837
3 *8:22 0.0200771
4 *8:21 0.0187788
5 *8:19 0.0228356
6 *8:18 0.0228356
7 *8:16 0.0105572
8 *8:15 0.0105572
9 *8:13 0.0230117
10 *8:11 0.0232065
11 *419:io_in[16] *419:la_data_in[20] 6.99409e-06
*RES
1 io_in[16] *8:11 2.655 
2 *8:11 *8:13 229.77 
3 *8:13 *8:15 4.5 
4 *8:15 *8:16 114.93 
5 *8:16 *8:18 4.5 
6 *8:18 *8:19 225.45 
7 *8:19 *8:21 4.5 
8 *8:21 *8:22 193.14 
9 *8:22 *419:io_in[16] 11.925 
*END

*D_NET *9 0.151129
*CONN
*P io_in[17] I
*I *419:io_in[17] I *D system_wrapper
*CAP
1 io_in[17] 0.00102016
2 *419:io_in[17] 0.000144038
3 *9:14 0.0164214
4 *9:13 0.0162774
5 *9:11 0.0294616
6 *9:10 0.0304818
7 *419:io_in[17] *419:la_data_in[10] 4.81816e-05
8 *9:10 *46:19 0.000208528
9 *9:14 *419:la_data_in[10] 0.0001189
10 *9:14 *264:14 0.0569474
*RES
1 io_in[17] *9:10 19.935 
2 *9:10 *9:11 292.41 
3 *9:11 *9:13 4.5 
4 *9:13 *9:14 209.79 
5 *9:14 *419:io_in[17] 1.755 
*END

*D_NET *10 0.149385
*CONN
*P io_in[18] I
*I *419:io_in[18] I *D system_wrapper
*CAP
1 io_in[18] 0.000812269
2 *419:io_in[18] 0.000620593
3 *10:11 0.0284802
4 *10:10 0.0278596
5 *10:8 0.011592
6 *10:7 0.0124042
7 *419:io_in[18] *60:38 0.000492285
8 *419:io_in[18] *78:11 0.00113149
9 *419:io_in[18] *387:13 0.00565745
10 *10:8 io_out[18] 0.0190861
11 *10:8 *11:10 0.000154129
12 *10:8 *15:8 0.0410942
*RES
1 io_in[18] *10:7 12.645 
2 *10:7 *10:8 165.69 
3 *10:8 *10:10 4.5 
4 *10:10 *10:11 275.49 
5 *10:11 *419:io_in[18] 41.13 
*END

*D_NET *11 0.244777
*CONN
*P io_in[19] I
*I *419:io_in[19] I *D system_wrapper
*CAP
1 io_in[19] 0.000959707
2 *419:io_in[19] 0.000234241
3 *11:11 0.0395685
4 *11:10 0.040294
5 *11:10 *15:11 0.00042963
6 *11:11 *15:11 0
7 *11:11 *60:8 0
8 *11:11 *178:19 0.146013
9 *11:11 *384:10 0.0171238
10 *11:11 *418:11 0
11 *10:8 *11:10 0.000154129
*RES
1 io_in[19] *11:10 19.395 
2 *11:10 *11:11 489.87 
3 *11:11 *419:io_in[19] 6.705 
*END

*D_NET *12 0.451112
*CONN
*P io_in[1] I
*I *419:io_in[1] I *D system_wrapper
*CAP
1 io_in[1] 0.000257266
2 *419:io_in[1] 0.000734569
3 *12:19 0.0305703
4 *12:18 0.0298358
5 *12:16 0.0604216
6 *12:15 0.0604216
7 *12:13 0.00715313
8 *12:11 0.0074104
9 *419:io_in[1] *60:64 0.000190265
10 *419:io_in[1] *126:19 0
11 *419:io_in[1] *348:28 0.000438299
12 *12:19 *50:11 0
13 *12:19 *60:48 0.00938753
14 *12:19 *163:18 0.00240286
15 *12:19 *198:13 0.00329499
16 *12:19 *231:13 0.0179049
17 *12:19 *282:20 0.138825
18 *12:19 *295:14 0
19 *12:19 *358:25 0
20 *12:19 *385:15 0.00134908
21 *12:19 *399:11 0.00597292
22 *12:19 *412:15 0.0745414
*RES
1 io_in[1] *12:11 3.195 
2 *12:11 *12:13 75.87 
3 *12:13 *12:15 4.5 
4 *12:15 *12:16 602.37 
5 *12:16 *12:18 4.5 
6 *12:18 *12:19 548.19 
7 *12:19 *419:io_in[1] 29.88 
*END

*D_NET *13 0.110465
*CONN
*P io_in[20] I
*I *419:io_in[20] I *D system_wrapper
*CAP
1 io_in[20] 0.0254443
2 *419:io_in[20] 0.000515027
3 *13:16 0.00396999
4 *13:8 0.00670761
5 *13:7 0.00325265
6 *13:5 0.0254443
7 *13:8 *91:11 0.0438297
8 *13:16 *419:wbs_dat_i[7] 6.13757e-05
9 *13:16 *64:13 5.90613e-05
10 *13:16 *164:38 0.001181
*RES
1 io_in[20] *13:5 253.845 
2 *13:5 *13:7 4.5 
3 *13:7 *13:8 63.45 
4 *13:8 *13:16 46.44 
5 *13:16 *419:io_in[20] 22.5 
*END

*D_NET *14 0.4864
*CONN
*P io_in[21] I
*I *419:io_in[21] I *D system_wrapper
*CAP
1 io_in[21] 0.00187086
2 *419:io_in[21] 0.00066312
3 *14:14 0.0069905
4 *14:13 0.00632738
5 *14:11 0.0361008
6 *14:10 0.0379716
7 *419:io_in[21] *419:la_data_in[36] 0
8 *419:io_in[21] *144:27 0.000199471
9 *419:io_in[21] *343:11 8.5926e-05
10 *14:10 *15:8 0.0126205
11 *14:11 *57:11 0
12 *14:11 *112:11 0.0837779
13 *14:11 *246:11 0.144908
14 *14:14 *419:la_data_in[5] 0.00109806
15 *14:14 *419:la_oenb[36] 0.000328722
16 *14:14 *419:la_oenb[7] 0.000462387
17 *14:14 *419:wbs_dat_i[28] 0.000741374
18 *14:14 *37:29 0.0219457
19 *14:14 *101:11 0.00252409
20 *14:14 *112:14 0
21 *14:14 *154:24 0.000146876
22 *14:14 *161:25 7.77123e-05
23 *14:14 *360:28 0.000258769
24 *14:14 *401:17 0.000786188
25 *14:14 *403:15 0.126514
*RES
1 io_in[21] *14:10 35.415 
2 *14:10 *14:11 505.35 
3 *14:11 *14:13 4.5 
4 *14:13 *14:14 183.15 
5 *14:14 *419:io_in[21] 20.3165 
*END

*D_NET *15 0.202344
*CONN
*P io_in[22] I
*I *419:io_in[22] I *D system_wrapper
*CAP
1 io_in[22] 0.000830123
2 *419:io_in[22] 0.000653015
3 *15:11 0.0283024
4 *15:10 0.0276494
5 *15:8 0.0233615
6 *15:7 0.0241916
7 *419:io_in[22] *36:16 0.000613757
8 *419:io_in[22] *60:8 0.00104339
9 *419:io_in[22] *265:17 0
10 *419:io_in[22] *384:10 0
11 *15:8 io_out[21] 0.00108173
12 *15:8 *49:17 0.0404725
13 *15:11 *384:10 0
14 *10:8 *15:8 0.0410942
15 *11:10 *15:11 0.00042963
16 *11:11 *15:11 0
17 *14:10 *15:8 0.0126205
*RES
1 io_in[22] *15:7 12.825 
2 *15:7 *15:8 319.05 
3 *15:8 *15:10 4.5 
4 *15:10 *15:11 274.14 
5 *15:11 *419:io_in[22] 7.695 
*END

*D_NET *16 0.18286
*CONN
*P io_in[23] I
*I *419:io_in[23] I *D system_wrapper
*CAP
1 io_in[23] 0.000270652
2 *419:io_in[23] 0.000792779
3 *16:19 0.00678643
4 *16:18 0.00599365
5 *16:16 0.0399939
6 *16:15 0.0399939
7 *16:13 0.0232652
8 *16:11 0.0235358
9 *419:io_in[23] *84:11 6.21698e-05
10 *16:19 *91:8 0.0421651
*RES
1 io_in[23] *16:11 3.195 
2 *16:11 *16:13 232.47 
3 *16:13 *16:15 4.5 
4 *16:15 *16:16 434.97 
5 *16:16 *16:18 4.5 
6 *16:18 *16:19 83.43 
7 *16:19 *419:io_in[23] 12.735 
*END

*D_NET *17 0.440995
*CONN
*P io_in[24] I
*I *419:io_in[24] I *D system_wrapper
*CAP
1 io_in[24] 0.000142137
2 *419:io_in[24] 0.000344657
3 *17:19 0.00808993
4 *17:18 0.00774528
5 *17:16 0.0497169
6 *17:15 0.0497169
7 *17:13 0.0198999
8 *17:11 0.0200421
9 *17:19 *75:32 0.00128743
10 *17:19 *95:13 0.146534
11 *17:19 *114:11 0.0806333
12 *17:19 *137:19 0
13 *17:19 *177:21 0
14 *17:19 *240:19 0.00202175
15 *17:19 *276:16 0
16 *17:19 *303:14 0.0418398
17 *17:19 *305:14 0.000373018
18 *17:19 *324:18 0
19 *17:19 *350:16 0
20 *17:19 *388:16 0.000559527
21 *17:19 *391:10 0.0120485
*RES
1 io_in[24] *17:11 1.935 
2 *17:11 *17:13 195.21 
3 *17:13 *17:15 4.5 
4 *17:15 *17:16 494.73 
5 *17:16 *17:18 4.5 
6 *17:18 *17:19 295.47 
7 *17:19 *419:io_in[24] 16.5365 
*END

*D_NET *18 0.198852
*CONN
*P io_in[25] I
*I *419:io_in[25] I *D system_wrapper
*CAP
1 io_in[25] 8.93818e-05
2 *419:io_in[25] 0.000508349
3 *18:19 0.00536094
4 *18:18 0.00485259
5 *18:16 0.0432819
6 *18:15 0.0432819
7 *18:13 0.0193866
8 *18:11 0.0194759
9 *419:io_in[25] *419:la_oenb[16] 0.00116614
10 *18:19 *75:25 0.0197077
11 *18:19 *96:11 0.0198943
12 *18:19 *403:15 0.0218464
*RES
1 io_in[25] *18:11 1.395 
2 *18:11 *18:13 189.81 
3 *18:13 *18:15 4.5 
4 *18:15 *18:16 430.29 
5 *18:16 *18:18 4.5 
6 *18:18 *18:19 158.13 
7 *18:19 *419:io_in[25] 19.9057 
*END

*D_NET *19 0.097881
*CONN
*P io_in[26] I
*I *419:io_in[26] I *D system_wrapper
*CAP
1 io_in[26] 0.000829874
2 *419:io_in[26] 7.1231e-05
3 *19:11 0.0294937
4 *19:10 0.0294224
5 *19:8 0.018617
6 *19:7 0.0194468
*RES
1 io_in[26] *19:7 13.365 
2 *19:7 *19:8 185.85 
3 *19:8 *19:10 4.5 
4 *19:10 *19:11 311.85 
5 *19:11 *419:io_in[26] 9.81 
*END

*D_NET *20 0.0905682
*CONN
*P io_in[27] I
*I *419:io_in[27] I *D system_wrapper
*CAP
1 io_in[27] 0.000253241
2 *419:io_in[27] 7.1231e-05
3 *20:19 0.0168172
4 *20:18 0.016746
5 *20:16 0.0147887
6 *20:15 0.0147887
7 *20:13 0.0134249
8 *20:11 0.0136782
*RES
1 io_in[27] *20:11 3.015 
2 *20:11 *20:13 146.61 
3 *20:13 *20:15 4.5 
4 *20:15 *20:16 146.79 
5 *20:16 *20:18 4.5 
6 *20:18 *20:19 174.15 
7 *20:19 *419:io_in[27] 9.81 
*END

*D_NET *21 0.0734227
*CONN
*P io_in[28] I
*I *419:io_in[28] I *D system_wrapper
*CAP
1 io_in[28] 0.00149391
2 *419:io_in[28] 7.1231e-05
3 *21:11 0.029038
4 *21:10 0.0289668
5 *21:8 0.00617947
6 *21:7 0.00767338
*RES
1 io_in[28] *21:7 18.765 
2 *21:7 *21:8 61.65 
3 *21:8 *21:10 4.5 
4 *21:10 *21:11 306.45 
5 *21:11 *419:io_in[28] 9.81 
*END

*D_NET *22 0.0660043
*CONN
*P io_in[29] I
*I *419:io_in[29] I *D system_wrapper
*CAP
1 io_in[29] 0.00333703
2 *419:io_in[29] 6.38359e-05
3 *22:11 0.0296651
4 *22:10 0.0329383
*RES
1 io_in[29] *22:10 42.795 
2 *22:10 *22:11 311.94 
3 *22:11 *419:io_in[29] 9.72 
*END

*D_NET *23 0.86896
*CONN
*P io_in[2] I
*I *419:io_in[2] I *D system_wrapper
*CAP
1 io_in[2] 0.000377569
2 *419:io_in[2] 0.000141872
3 *23:11 0.0229506
4 *23:10 0.0228087
5 *23:8 0.00742713
6 *23:7 0.0078047
7 *419:io_in[2] *419:wbs_dat_i[0] 0.000797884
8 *419:io_in[2] *278:14 0.00112942
9 *419:io_in[2] *349:14 0.00112942
10 *419:io_in[2] *379:21 0.00104339
11 *23:8 *32:8 0.00272099
12 *23:8 *40:12 0.0489165
13 *23:8 *44:14 0.150309
14 *23:8 *77:14 0.103398
15 *23:8 *88:16 0.200637
16 *23:11 *36:11 0.297358
17 *23:11 *278:14 0
18 *23:11 *349:14 9.32547e-06
*RES
1 io_in[2] *23:7 8.325 
2 *23:7 *23:8 526.59 
3 *23:8 *23:10 4.5 
4 *23:10 *23:11 434.97 
5 *23:11 *419:io_in[2] 15.435 
*END

*D_NET *24 0.324657
*CONN
*P io_in[30] I
*I *419:io_in[30] I *D system_wrapper
*CAP
1 io_in[30] 6.88168e-05
2 *419:io_in[30] 0.000647264
3 *24:19 0.00530765
4 *24:18 0.00466039
5 *24:16 0.00931572
6 *24:15 0.00931572
7 *24:13 0.0159448
8 *24:11 0.0160136
9 *419:io_in[30] *79:10 5.83069e-05
10 *419:io_in[30] *104:12 0.000584386
11 *419:io_in[30] *156:28 6.13757e-05
12 *24:13 *25:15 0
13 *24:19 *101:11 0.0256968
14 *24:19 *112:14 0.119179
15 *24:19 *122:16 0.100528
16 *24:19 *326:16 0.012235
17 *24:19 *345:16 0.00504093
*RES
1 io_in[30] *24:11 1.215 
2 *24:11 *24:13 170.91 
3 *24:13 *24:15 4.5 
4 *24:15 *24:16 92.43 
5 *24:16 *24:18 4.5 
6 *24:18 *24:19 284.13 
7 *24:19 *419:io_in[30] 21.7565 
*END

*D_NET *25 0.0793824
*CONN
*P io_in[31] I
*I *419:io_in[31] I *D system_wrapper
*CAP
1 io_in[31] 0.00124651
2 *419:io_in[31] 8.05944e-05
3 *25:15 0.0232203
4 *25:14 0.0231397
5 *25:12 0.00698561
6 *25:11 0.00698561
7 *25:9 0.00823879
8 *25:7 0.0094853
9 *24:13 *25:15 0
*RES
1 io_in[31] *25:7 13.185 
2 *25:7 *25:9 87.84 
3 *25:9 *25:11 4.5 
4 *25:11 *25:12 69.39 
5 *25:12 *25:14 4.5 
6 *25:14 *25:15 220.14 
7 *25:15 *419:io_in[31] 9.72 
*END

*D_NET *26 0.348354
*CONN
*P io_in[32] I
*I *419:io_in[32] I *D system_wrapper
*CAP
1 io_in[32] 0.000240014
2 *419:io_in[32] 0.00115839
3 *26:19 0.00639073
4 *26:18 0.00523234
5 *26:16 0.00432878
6 *26:13 0.0231611
7 *26:11 0.0190723
8 *419:io_in[32] *249:15 0.00276191
9 *26:13 *356:16 0
10 *26:16 *356:13 0
11 *26:16 *388:17 0
12 *26:19 *52:17 0.00326391
13 *26:19 *62:11 0.00107554
14 *26:19 *364:16 0.0424409
15 *26:19 *373:16 0.0340068
16 *26:19 *374:16 0.205222
*RES
1 io_in[32] *26:11 3.015 
2 *26:11 *26:13 197.91 
3 *26:13 *26:16 46.53 
4 *26:16 *26:18 4.5 
5 *26:18 *26:19 297.09 
6 *26:19 *419:io_in[32] 25.3565 
*END

*D_NET *27 0.0901209
*CONN
*P io_in[33] I
*I *419:io_in[33] I *D system_wrapper
*CAP
1 io_in[33] 0.000829874
2 *419:io_in[33] 7.1231e-05
3 *27:11 0.0300688
4 *27:10 0.0299976
5 *27:8 0.0140393
6 *27:7 0.0148692
7 *27:11 *75:19 0.000244793
*RES
1 io_in[33] *27:7 13.365 
2 *27:7 *27:8 140.13 
3 *27:8 *27:10 4.5 
4 *27:10 *27:11 311.85 
5 *27:11 *419:io_in[33] 9.81 
*END

*D_NET *28 0.135325
*CONN
*P io_in[34] I
*I *419:io_in[34] I *D system_wrapper
*CAP
1 io_in[34] 0.00274043
2 *419:io_in[34] 7.1231e-05
3 *28:19 0.0276496
4 *28:18 0.0275784
5 *28:16 0.0372722
6 *28:15 0.0400126
7 *28:16 *417:13 0
8 *28:19 *60:89 0
*RES
1 io_in[34] *28:15 34.245 
2 *28:15 *28:16 371.79 
3 *28:16 *28:18 4.5 
4 *28:18 *28:19 292.95 
5 *28:19 *419:io_in[34] 9.81 
*END

*D_NET *29 0.379142
*CONN
*P io_in[35] I
*I *419:io_in[35] I *D system_wrapper
*CAP
1 io_in[35] 8.47422e-05
2 *419:io_in[35] 0.00101207
3 *29:19 0.0190958
4 *29:18 0.0180837
5 *29:16 0.0483796
6 *29:15 0.0483796
7 *29:13 0.0069483
8 *29:11 0.00703304
9 *29:16 *374:13 0
10 *29:19 *50:11 0.0888404
11 *29:19 *102:13 0.0110227
12 *29:19 *133:14 0.0396022
13 *29:19 *174:12 0
14 *29:19 *179:13 0.0131592
15 *29:19 *316:14 0
16 *29:19 *335:14 0.0689463
17 *29:19 *358:16 0.00855455
*RES
1 io_in[35] *29:11 1.395 
2 *29:11 *29:13 73.71 
3 *29:13 *29:15 4.5 
4 *29:15 *29:16 482.13 
5 *29:16 *29:18 4.5 
6 *29:18 *29:19 418.05 
7 *29:19 *419:io_in[35] 31.14 
*END

*D_NET *30 0.459637
*CONN
*P io_in[36] I
*I *419:io_in[36] I *D system_wrapper
*CAP
1 io_in[36] 0.00123228
2 *419:io_in[36] 0.0012226
3 *30:12 0.0369525
4 *30:11 0.0357299
5 *30:9 0.0491879
6 *30:7 0.0504201
7 *419:io_in[36] *419:wbs_dat_i[0] 0.000169374
8 *30:12 *94:8 0.0341249
9 *30:12 *123:11 0.250597
*RES
1 io_in[36] *30:7 13.185 
2 *30:7 *30:9 513.18 